 format  1  0

CHEMISTRY      
N_monomer           
              2
names               
            'A'            'B'
kuhn                
  1.0000000E+00  1.0000000E+00
chi_flag            
            'B'
chi                 
  2.0000000E+01
N_chain             
              1
N_block             
              2
block_monomer  
              1              2
block_length   
  3.8000000E-01  6.2000000E-01
N_solvent           
              0
ensemble            
              0
phi_chain           
  1.0000000E+00

UNIT_CELL      
dim                 
              2
crystal_system      
    'hexagonal'
N_cell_param        
              1
cell_param          
  1.8419886E+00

DISCRETIZATION 
N_grids             
             24             24
chain_step          
  1.0000000E-02

FILE_PREFIXES  
input_prefix        
          'in.'
output_prefix       
             ''

BASIS          
group_name          
      'P 6 m m'

READ_OMEGA     
reorder_omega       
              F

ITERATE        
max_itr             
             12
N_cut               
             61
error_max           
  1.0000000E-08
domain              
              T

SWEEP          
s_max               
  2.8000000E+01
d_block_length 
 -1.0000000E-02  1.0000000E-02
end_increments 

FINISH         

THERMO         
f_Helmholtz         
  2.9753626E+00
f_homo              
  3.7120000E+00
pressure            
  3.0567129E+00
mu_chain            
  6.0320755E+00
stress              
 -2.8004993E-11

DECOMPOSE      
overlap_AB          
  1.0283564E-01
f_enthalpy          
  2.0567129E+00
f_head              
  9.2677081E-01
f_tail              
  7.8722671E-01
f_junction          
  2.0465221E-01

STATISTICS     
N_star              
             61
Final Error         
  2.8004993E-09
Iterations          
              9
Basis Time          
  4.7319293E-01
SCF Time            
  8.0523109E-01
