 format  1  0

CHEMISTRY      
N_monomer           
              2
names               
            'A'            'B'
kuhn                
  1.0000000E+00  1.0000000E+00
chi_flag            
            'B'
chi                 
  2.0000000E+01
N_chain             
              1
N_block             
              2
block_monomer  
              1              2
block_length   
  3.1000000E-01  6.9000000E-01
N_solvent           
              0
ensemble            
              0
phi_chain           
  1.0000000E+00

UNIT_CELL      
dim                 
              2
crystal_system      
    'hexagonal'
N_cell_param        
              1
cell_param          
  1.7114076E+00

DISCRETIZATION 
N_grids             
             24             24
chain_step          
  1.0000000E-02

FILE_PREFIXES  
input_prefix        
          'in.'
output_prefix       
             ''

BASIS          
group_name          
      'P 6 m m'

READ_OMEGA     
reorder_omega       
              F

ITERATE        
max_itr             
             12
N_cut               
             61
error_max           
  1.0000000E-08
domain              
              T

SWEEP          
s_max               
  2.8000000E+01
d_block_length 
 -1.0000000E-02  1.0000000E-02
end_increments 

FINISH         

THERMO         
f_Helmholtz         
  2.8302291E+00
f_homo              
  3.2780000E+00
pressure            
  3.1672881E+00
mu_chain            
  5.9975172E+00
stress              
 -4.6630548E-11

DECOMPOSE      
overlap_AB          
  1.0836440E-01
f_enthalpy          
  2.1672881E+00
f_head              
  7.6614409E-01
f_tail              
  6.8260743E-01
f_junction          
  2.1418951E-01

STATISTICS     
N_star              
             61
Final Error         
  5.2051008E-09
Iterations          
              9
Basis Time          
  4.7319293E-01
SCF Time            
  8.0443096E-01
