 format  1  0

CHEMISTRY      
N_monomer           
              2
names               
            'A'            'B'
kuhn                
  1.0000000E+00  1.0000000E+00
chi_flag            
            'B'
chi                 
  2.0000000E+01
N_chain             
              1
N_block             
              2
block_monomer  
              1              2
block_length   
  2.9000000E-01  7.1000000E-01
N_solvent           
              0
ensemble            
              0
phi_chain           
  1.0000000E+00

UNIT_CELL      
dim                 
              2
crystal_system      
    'hexagonal'
N_cell_param        
              1
cell_param          
  1.6699533E+00

DISCRETIZATION 
N_grids             
             24             24
chain_step          
  1.0000000E-02

FILE_PREFIXES  
input_prefix        
          'in.'
output_prefix       
             ''

BASIS          
group_name          
      'P 6 m m'

READ_OMEGA     
reorder_omega       
              F

ITERATE        
max_itr             
             12
N_cut               
             61
error_max           
  1.0000000E-08
domain              
              T

SWEEP          
s_max               
  2.8000000E+01
d_block_length 
 -1.0000000E-02  1.0000000E-02
end_increments 

FINISH         

THERMO         
f_Helmholtz         
  2.7715135E+00
f_homo              
  3.1180000E+00
pressure            
  3.2324124E+00
mu_chain            
  6.0039260E+00
stress              
 -8.3774243E-12

DECOMPOSE      
overlap_AB          
  1.1162062E-01
f_enthalpy          
  2.2324124E+00
f_head              
  6.9617797E-01
f_tail              
  6.3072330E-01
f_junction          
  2.1219984E-01

STATISTICS     
N_star              
             61
Final Error         
  1.2222536E-09
Iterations          
             11
Basis Time          
  4.7319293E-01
SCF Time            
  9.6555805E-01
