 format  1  0

CHEMISTRY      
N_monomer           
              2
names               
            'A'            'B'
kuhn                
  1.0000000E+00  1.0000000E+00
chi_flag            
            'B'
chi                 
  2.0000000E+01
N_chain             
              1
N_block             
              2
block_monomer  
              1              2
block_length   
  2.2000000E-01  7.8000000E-01
N_solvent           
              0
ensemble            
              0
phi_chain           
  1.0000000E+00

UNIT_CELL      
dim                 
              2
crystal_system      
    'hexagonal'
N_cell_param        
              1
cell_param          
  1.5263522E+00

DISCRETIZATION 
N_grids             
             24             24
chain_step          
  1.0000000E-02

FILE_PREFIXES  
input_prefix        
          'in.'
output_prefix       
             ''

BASIS          
group_name          
      'P 6 m m'

READ_OMEGA     
reorder_omega       
              F

ITERATE        
max_itr             
             12
N_cut               
             61
error_max           
  1.0000000E-08
domain              
              T

SWEEP          
s_max               
  2.8000000E+01
d_block_length 
 -1.0000000E-02  1.0000000E-02
end_increments 

FINISH         

THERMO         
f_Helmholtz         
  2.4204866E+00
f_homo              
  2.4320000E+00
pressure            
  3.8031440E+00
mu_chain            
  6.2236307E+00
stress              
 -1.7469404E-11

DECOMPOSE      
overlap_AB          
  1.4015720E-01
f_enthalpy          
  2.8031440E+00
f_head              
  2.5897589E-01
f_tail              
  2.4403059E-01
f_junction          
  1.1433614E-01

STATISTICS     
N_star              
             61
Final Error         
  2.6277922E-09
Iterations          
             11
Basis Time          
  4.7319293E-01
SCF Time            
  9.6487999E-01
