 format  1  0

CHEMISTRY      
N_monomer           
              2
names               
            'A'            'B'
kuhn                
  1.0000000E+00  1.0000000E+00
chi_flag            
            'B'
chi                 
  2.0000000E+01
N_chain             
              1
N_block             
              2
block_monomer  
              1              2
block_length   
  4.1000000E-01  5.9000000E-01
N_solvent           
              0
ensemble            
              0
phi_chain           
  1.0000000E+00

UNIT_CELL      
dim                 
              2
crystal_system      
    'hexagonal'
N_cell_param        
              1
cell_param          
  1.8902532E+00

DISCRETIZATION 
N_grids             
             24             24
chain_step          
  1.0000000E-02

FILE_PREFIXES  
input_prefix        
          'in.'
output_prefix       
             ''

BASIS          
group_name          
      'P 6 m m'

READ_OMEGA     
reorder_omega       
              F

ITERATE        
max_itr             
             12
N_cut               
             61
error_max           
  1.0000000E-08
domain              
              T

SWEEP          
s_max               
  2.8000000E+01
d_block_length 
 -1.0000000E-02  1.0000000E-02
end_increments 

FINISH         

THERMO         
f_Helmholtz         
  3.0197568E+00
f_homo              
  3.8380000E+00
pressure            
  3.0423353E+00
mu_chain            
  6.0620921E+00
stress              
 -2.1689195E-12

DECOMPOSE      
overlap_AB          
  1.0211676E-01
f_enthalpy          
  2.0423353E+00
f_head              
  9.6845397E-01
f_tail              
  8.0933774E-01
f_junction          
  1.9962982E-01

STATISTICS     
N_star              
             61
Final Error         
  9.7052113E-09
Iterations          
              7
Basis Time          
  4.7319293E-01
SCF Time            
  6.4358211E-01
