 format  1  0

MONOMERS            
N_monomer           
                   2
kuhn                
    1.0000000000E+00    1.0000000000E+00

CHAINS              
N_chain             
                   1
N_block             
                   2
block_monomer       
                   1                   2
block_length        
    5.0000000000E-01    5.0000000000E-01

COMPOSITION         
ensemble            
                   0
phi_chain           
    1.0000000000E+00

INTERACTION         
interaction_type    
               'chi'
chi                 
    1.5000000000E+01

UNIT_CELL           
dim                 
                   2
crystal_system      
         'hexagonal'
N_cell_param        
                   1
cell_param          
    1.8008915843E+00

DISCRETIZATION      
ngrid               
                  24                  24
chain_step          
    1.0000000000E-02

FILE_PREFIXES       
input_prefix        
               'in.'
output_prefix       
              'ref/'

BASIS               
group_name          
           'P 6 m m'

ITERATE             
max_itr             
                  40
error_max           
    1.0000000000E-08
domain              
                   T
itr_algo            
                'NR'
N_cut               
                  60

SWEEP               
s_max               
    2.6000000000E+01
d_block_length      
   -1.0000000000E-02    1.0000000000E-02
end_increments      

FINISH              

THERMO              
f_Helmholtz         
    2.4972323892E+00
f_homo              
    2.7500000000E+00
pressure            
    3.2499843820E+00
mu_chain            
    5.7472167712E+00
stress              
   -3.4145126558E-15

STATISTICS          
N_star              
                  61
Final Error         
    4.7722976713E-09
Iterations          
                   4
Basis Time          
    1.4776768684E+00
SCF Time            
    8.4036309719E+00
