 format  1  0

MONOMERS            
N_monomer           
                   2
kuhn                
    1.0000000000E+00    1.0000000000E+00

CHAINS              
N_chain             
                   1
N_block             
                   2
block_monomer       
                   1                   2
block_length        
    4.8000000022E-01    5.1999999978E-01

COMPOSITION         
ensemble            
                   0
phi_chain           
    1.0000000000E+00

INTERACTION         
interaction_type    
               'chi'
chi                 
    1.5000000000E+01

UNIT_CELL           
dim                 
                   2
crystal_system      
         'hexagonal'
N_cell_param        
                   1
cell_param          
    1.7880737849E+00

DISCRETIZATION      
ngrid               
                  24                  24
chain_step          
    1.0000000000E-02

FILE_PREFIXES       
input_prefix        
               'in.'
output_prefix       
              'ref/'

BASIS               
group_name          
           'P 6 m m'

ITERATE             
max_itr             
                  40
error_max           
    1.0000000000E-08
domain              
                   T
itr_algo            
                'NR'
N_cut               
                  60

SWEEP               
s_max               
    2.6000000000E+01
d_block_length      
   -1.0000000000E-02    1.0000000000E-02
end_increments      

FINISH              

THERMO              
f_Helmholtz         
    2.4856146552E+00
f_homo              
    2.7440000001E+00
pressure            
    3.2294539864E+00
mu_chain            
    5.7150686416E+00
stress              
   -1.8247498268E-14

STATISTICS          
N_star              
                  61
Final Error         
    3.8225405365E-10
Iterations          
                   6
Basis Time          
    1.4776768684E+00
SCF Time            
    6.3845109940E-01
