 format  1  0

CHEMISTRY      
N_monomer           
              2
names               
            'A'            'B'
kuhn                
  1.0000000E+00  1.0000000E+00
chi_flag            
            'B'
chi                 
  5.8000000E+01
N_chain             
              1
N_block             
              2
block_monomer  
              1              2
block_length   
  3.4000000E-01  6.6000000E-01
N_solvent           
              0
ensemble            
              0
phi_chain           
  1.0000000E+00

UNIT_CELL      
dim                 
              2
crystal_system      
    'hexagonal'
N_cell_param        
              1
cell_param          
  2.2870485E+00

DISCRETIZATION 
N_grids             
             24             24
chain_step          
  1.0000000E-02

FILE_PREFIXES  
input_prefix        
          'in.'
output_prefix       
             ''

BASIS          
group_name          
      'P 6 m m'

READ_OMEGA     
reorder_omega       
              F

ITERATE        
max_itr             
             12
N_cut               
             61
error_max           
  1.0000000E-08
domain              
              T

SWEEP          
s_max               
  4.0000000E+01
d_chi               
  1.0000000E+00
end_increments 

FINISH         

THERMO         
f_Helmholtz         
  5.0748176E+00
f_homo              
  1.2015200E+01
pressure            
  3.1178082E+00
mu_chain            
  8.1926258E+00
stress              
 -3.7702711E-11

DECOMPOSE      
overlap_AB          
  3.6513935E-02
f_enthalpy          
  2.1178082E+00
f_head              
  1.6307048E+00
f_tail              
  1.3960092E+00
f_junction          
  9.3617257E-01

STATISTICS     
N_star              
             61
Final Error         
  7.5989992E-09
Iterations          
              9
Basis Time          
  4.7928190E-01
SCF Time            
  8.2206893E-01
