 format  1  0

MONOMERS            
N_monomer           
                   2
kuhn                
    1.0000000000E+00    1.0000000000E+00

CHAINS              
N_chain             
                   1
N_block             
                   2
block_monomer       
                   1                   2
block_length        
    4.2000000022E-01    5.7999999978E-01

COMPOSITION         
ensemble            
                   0
phi_chain           
    1.0000000000E+00

INTERACTION         
interaction_type    
               'chi'
chi                 
    1.5000000000E+01

UNIT_CELL           
dim                 
                   3
crystal_system      
             'cubic'
N_cell_param        
                   1
cell_param          
    3.7039980143E+00

DISCRETIZATION      
ngrid               
                  24                  24                  24
chain_step          
    1.0000000000E-02

FILE_PREFIXES       
input_prefix        
               'in.'
output_prefix       
              'ref/'

BASIS               
group_name          
          'I a -3 d'

ITERATE             
max_itr             
                  30
error_max           
    1.0000000000E-08
domain              
                   T
itr_algo            
                'NR'
N_cut               
                  40

SWEEP               
s_max               
    1.4000000000E+01
d_block_length      
   -1.0000000000E-02    1.0000000000E-02
end_increments      

FINISH              

THERMO              
f_Helmholtz         
    2.4123335475E+00
f_homo              
    2.6540000005E+00
pressure            
    3.1590979978E+00
mu_chain            
    5.5714315453E+00
stress              
   -1.2152683628E-11

STATISTICS          
N_star              
                 156
Final Error         
    2.1651766751E-09
Iterations          
                  10
Basis Time          
    1.3281432486E+02
SCF Time            
    3.0718522072E+01
