 format  1  0

MONOMERS            
N_monomer           
                   2
kuhn                
    1.0000000000E+00    1.0000000000E+00

CHAINS              
N_chain             
                   1
N_block             
                   2
block_monomer       
                   1                   2
block_length        
    3.7000000022E-01    6.2999999978E-01

COMPOSITION         
ensemble            
                   0
phi_chain           
    1.0000000000E+00

INTERACTION         
interaction_type    
               'chi'
chi                 
    1.5000000000E+01

UNIT_CELL           
dim                 
                   3
crystal_system      
             'cubic'
N_cell_param        
                   1
cell_param          
    3.5711040800E+00

DISCRETIZATION      
ngrid               
                  24                  24                  24
chain_step          
    1.0000000000E-02

FILE_PREFIXES       
input_prefix        
               'in.'
output_prefix       
              'ref/'

BASIS               
group_name          
          'I a -3 d'

ITERATE             
max_itr             
                  30
error_max           
    1.0000000000E-08
domain              
                   T
itr_algo            
                'NR'
N_cut               
                  40

SWEEP               
s_max               
    1.4000000000E+01
d_block_length      
   -1.0000000000E-02    1.0000000000E-02
end_increments      

FINISH              

THERMO              
f_Helmholtz         
    2.3369821927E+00
f_homo              
    2.4965000009E+00
pressure            
    3.2525709691E+00
mu_chain            
    5.5895531618E+00
stress              
    2.7009322734E-12

STATISTICS          
N_star              
                 156
Final Error         
    4.1611762647E-09
Iterations          
                  12
Basis Time          
    1.3281432486E+02
SCF Time            
    3.7148284912E+01
